test/fixtures/powermodels/case5_pwlc/sol_ac_pf.json
{
  "termination_status": "LOCALLY_SOLVED",
  "objective": 0.0,
  "solution": {
    "dcline": {
      "1": {
        "qf": -0.7013981280260765,
        "qt": 0.8501356866245036,
        "pt": -0.1,
        "pf": 0.1
      }
    },
    "baseMVA": 100.0,
    "gen": {
      "4": {
        "qg": 1.950144647550896,
        "pg": 0.0
      },
      "1": {
        "qg": 0.44229812802607626,
        "pg": 0.4
      },
      "5": {
        "qg": -0.10903783477752334,
        "pg": 0.012120128970687245
      },
      "2": {
        "qg": 0.44229812802607626,
        "pg": 1.7
      },
      "6": {
        "qg": -0.8085356866245035,
        "pg": 4.7
      },
      "3": {
        "qg": 1.9501446475508961,
        "pg": 3.24
      }
    },
    "multiinfrastructure": false,
    "multinetwork": false,
    "bus": {
      "4": {
        "va": -2.80140577805525e-36,
        "vm": 1.06414
      },
      "1": {
        "va": 0.048635726511146664,
        "vm": 1.07762
      },
      "10": {
        "va": 0.06284657685350882,
        "vm": 1.06907
      },
      "2": {
        "va": -0.013050373538963841,
        "vm": 1.084066654438035
      },
      "3": {
        "va": -0.009970844668279705,
        "vm": 1.1
      }
    },
    "per_unit": true
  }
}

